data_test

_audit_creation_method generated by ABACUS

_cell_length_a 11.9103
_cell_length_b 11.9103
_cell_length_c 11.9103
_cell_angle_alpha 90
_cell_angle_beta 90
_cell_angle_gamma 90

_symmetry_space_group_name_H-M 
_symmetry_Int_Tables_number 

loop_
_atom_site_label
_atom_site_fract_x
_atom_site_fract_y
_atom_site_fract_z
Al 0.166667 0.166667 0
Al 0.166667 0 0.166667
Al 0 0.166667 0.166667
Al 0 0 0.333333
Al 0.166667 0.166667 0.333333
Al 0.166667 0 0.5
Al 0 0.166667 0.5
Al 0 0 0.666667
Al 0.166667 0.166667 0.666667
Al 0.166667 0 0.833333
Al 0 0.166667 0.833333
Al 0 0.333333 0
Al 0.166667 0.5 0
Al 0.166667 0.333333 0.166667
Al 0 0.5 0.166667
Al 0 0.333333 0.333333
Al 0.166667 0.5 0.333333
Al 0.166667 0.333333 0.5
Al 0 0.5 0.5
Al 0 0.333333 0.666667
Al 0.166667 0.5 0.666667
Al 0.166667 0.333333 0.833333
Al 0 0.5 0.833333
Al 0 0.666667 0
Al 0.166667 0.833333 0
Al 0.166667 0.666667 0.166667
Al 0 0.833333 0.166667
Al 0 0.666667 0.333333
Al 0.166667 0.833333 0.333333
Al 0.166667 0.666667 0.5
Al 0 0.833333 0.5
Al 0 0.666667 0.666667
Al 0.166667 0.833333 0.666667
Al 0.166667 0.666667 0.833333
Al 0 0.833333 0.833333
Al 0.333333 0 0
Al 0.5 0.166667 0
Al 0.5 0 0.166667
Al 0.333333 0.166667 0.166667
Al 0.333333 0 0.333333
Al 0.5 0.166667 0.333333
Al 0.5 0 0.5
Al 0.333333 0.166667 0.5
Al 0.333333 0 0.666667
Al 0.5 0.166667 0.666667
Al 0.5 0 0.833333
Al 0.333333 0.166667 0.833333
Al 0.333333 0.333333 0
Al 0.5 0.5 0
Al 0.5 0.333333 0.166667
Al 0.333333 0.5 0.166667
Al 0.333333 0.333333 0.333333
Al 0.5 0.5 0.333333
Al 0.5 0.333333 0.5
Al 0.333333 0.5 0.5
Al 0.333333 0.333333 0.666667
Al 0.5 0.5 0.666667
Al 0.5 0.333333 0.833333
Al 0.333333 0.5 0.833333
Al 0.333333 0.666667 0
Al 0.5 0.833333 0
Al 0.5 0.666667 0.166667
Al 0.333333 0.833333 0.166667
Al 0.333333 0.666667 0.333333
Al 0.5 0.833333 0.333333
Al 0.5 0.666667 0.5
Al 0.333333 0.833333 0.5
Al 0.333333 0.666667 0.666667
Al 0.5 0.833333 0.666667
Al 0.5 0.666667 0.833333
Al 0.333333 0.833333 0.833333
Al 0.666667 0 0
Al 0.833333 0.166667 0
Al 0.833333 0 0.166667
Al 0.666667 0.166667 0.166667
Al 0.666667 0 0.333333
Al 0.833333 0.166667 0.333333
Al 0.833333 0 0.5
Al 0.666667 0.166667 0.5
Al 0.666667 0 0.666667
Al 0.833333 0.166667 0.666667
Al 0.833333 0 0.833333
Al 0.666667 0.166667 0.833333
Al 0.666667 0.333333 0
Al 0.833333 0.5 0
Al 0.833333 0.333333 0.166667
Al 0.666667 0.5 0.166667
Al 0.666667 0.333333 0.333333
Al 0.833333 0.5 0.333333
Al 0.833333 0.333333 0.5
Al 0.666667 0.5 0.5
Al 0.666667 0.333333 0.666667
Al 0.833333 0.5 0.666667
Al 0.833333 0.333333 0.833333
Al 0.666667 0.5 0.833333
Al 0.666667 0.666667 0
Al 0.833333 0.833333 0
Al 0.833333 0.666667 0.166667
Al 0.666667 0.833333 0.166667
Al 0.666667 0.666667 0.333333
Al 0.833333 0.833333 0.333333
Al 0.833333 0.666667 0.5
Al 0.666667 0.833333 0.5
Al 0.666667 0.666667 0.666667
Al 0.833333 0.833333 0.666667
Al 0.833333 0.666667 0.833333
Al 0.666667 0.833333 0.833333
