data_none

_audit_creation_method generated by ABACUS

_cell_length_a 6.26713
_cell_length_b 10.9495
_cell_length_c 5.01385
_cell_angle_alpha 90
_cell_angle_beta 90
_cell_angle_gamma 90

_symmetry_space_group_name_H-M 
_symmetry_Int_Tables_number 

loop_
_atom_site_label
_atom_site_fract_x
_atom_site_fract_y
_atom_site_fract_z
Li 0.5 0.167216 0.5
Li 0 0.667216 0.5
Mg 0.250669 0.416517 0.5
Mg 0.749331 0.416517 0.5
Mg 0.750523 0.085389 0
Mg 0.249477 0.085389 0
Mg 0 0.331002 0
Mg 0.5 0.331817 0
Mg 0.750669 0.916517 0.5
Mg 0.249331 0.916517 0.5
Mg 0.250523 0.585389 0
Mg 0.749477 0.585389 0
Mg 0.5 0.831002 0
Mg 0 0.831817 0
Al 0 0.16615 0.5
Al 0.5 0.66615 0.5
