data_test

_audit_creation_method generated by ABACUS

_cell_length_a 16.225
_cell_length_b 16.225
_cell_length_c 16.225
_cell_angle_alpha 90
_cell_angle_beta 90
_cell_angle_gamma 90

_symmetry_space_group_name_H-M 
_symmetry_Int_Tables_number 

loop_
_atom_site_label
_atom_site_fract_x
_atom_site_fract_y
_atom_site_fract_z
Si 0.0833333 0.0833333 0.0833333
Si 0.166667 0.166667 0
Si 0.25 0.25 0.0833333
Si 0.166667 0 0.166667
Si 0.25 0.0833333 0.25
Si 0 0.166667 0.166667
Si 0.0833333 0.25 0.25
Si 0 0 0.333333
Si 0.0833333 0.0833333 0.416667
Si 0.166667 0.166667 0.333333
Si 0.25 0.25 0.416667
Si 0.166667 0 0.5
Si 0.25 0.0833333 0.583333
Si 0 0.166667 0.5
Si 0.0833333 0.25 0.583333
Si 0 0 0.666667
Si 0.0833333 0.0833333 0.75
Si 0.166667 0.166667 0.666667
Si 0.25 0.25 0.75
Si 0.166667 0 0.833333
Si 0.25 0.0833333 0.916667
Si 0 0.166667 0.833333
Si 0.0833333 0.25 0.916667
Si 0 0.333333 0
Si 0.0833333 0.416667 0.0833333
Si 0.166667 0.5 0
Si 0.25 0.583333 0.0833333
Si 0.166667 0.333333 0.166667
Si 0.25 0.416667 0.25
Si 0 0.5 0.166667
Si 0.0833333 0.583333 0.25
Si 0 0.333333 0.333333
Si 0.0833333 0.416667 0.416667
Si 0.166667 0.5 0.333333
Si 0.25 0.583333 0.416667
Si 0.166667 0.333333 0.5
Si 0.25 0.416667 0.583333
Si 0 0.5 0.5
Si 0.0833333 0.583333 0.583333
Si 0 0.333333 0.666667
Si 0.0833333 0.416667 0.75
Si 0.166667 0.5 0.666667
Si 0.25 0.583333 0.75
Si 0.166667 0.333333 0.833333
Si 0.25 0.416667 0.916667
Si 0 0.5 0.833333
Si 0.0833333 0.583333 0.916667
Si 0 0.666667 0
Si 0.0833333 0.75 0.0833333
Si 0.166667 0.833333 0
Si 0.25 0.916667 0.0833333
Si 0.166667 0.666667 0.166667
Si 0.25 0.75 0.25
Si 0 0.833333 0.166667
Si 0.0833333 0.916667 0.25
Si 0 0.666667 0.333333
Si 0.0833333 0.75 0.416667
Si 0.166667 0.833333 0.333333
Si 0.25 0.916667 0.416667
Si 0.166667 0.666667 0.5
Si 0.25 0.75 0.583333
Si 0 0.833333 0.5
Si 0.0833333 0.916667 0.583333
Si 0 0.666667 0.666667
Si 0.0833333 0.75 0.75
Si 0.166667 0.833333 0.666667
Si 0.25 0.916667 0.75
Si 0.166667 0.666667 0.833333
Si 0.25 0.75 0.916667
Si 0 0.833333 0.833333
Si 0.0833333 0.916667 0.916667
Si 0.333333 0 0
Si 0.416667 0.0833333 0.0833333
Si 0.5 0.166667 0
Si 0.583333 0.25 0.0833333
Si 0.5 0 0.166667
Si 0.583333 0.0833333 0.25
Si 0.333333 0.166667 0.166667
Si 0.416667 0.25 0.25
Si 0.333333 0 0.333333
Si 0.416667 0.0833333 0.416667
Si 0.5 0.166667 0.333333
Si 0.583333 0.25 0.416667
Si 0.5 0 0.5
Si 0.583333 0.0833333 0.583333
Si 0.333333 0.166667 0.5
Si 0.416667 0.25 0.583333
Si 0.333333 0 0.666667
Si 0.416667 0.0833333 0.75
Si 0.5 0.166667 0.666667
Si 0.583333 0.25 0.75
Si 0.5 0 0.833333
Si 0.583333 0.0833333 0.916667
Si 0.333333 0.166667 0.833333
Si 0.416667 0.25 0.916667
Si 0.333333 0.333333 0
Si 0.416667 0.416667 0.0833333
Si 0.5 0.5 0
Si 0.583333 0.583333 0.0833333
Si 0.5 0.333333 0.166667
Si 0.583333 0.416667 0.25
Si 0.333333 0.5 0.166667
Si 0.416667 0.583333 0.25
Si 0.333333 0.333333 0.333333
Si 0.416667 0.416667 0.416667
Si 0.5 0.5 0.333333
Si 0.583333 0.583333 0.416667
Si 0.5 0.333333 0.5
Si 0.583333 0.416667 0.583333
Si 0.333333 0.5 0.5
Si 0.416667 0.583333 0.583333
Si 0.333333 0.333333 0.666667
Si 0.416667 0.416667 0.75
Si 0.5 0.5 0.666667
Si 0.583333 0.583333 0.75
Si 0.5 0.333333 0.833333
Si 0.583333 0.416667 0.916667
Si 0.333333 0.5 0.833333
Si 0.416667 0.583333 0.916667
Si 0.333333 0.666667 0
Si 0.416667 0.75 0.0833333
Si 0.5 0.833333 0
Si 0.583333 0.916667 0.0833333
Si 0.5 0.666667 0.166667
Si 0.583333 0.75 0.25
Si 0.333333 0.833333 0.166667
Si 0.416667 0.916667 0.25
Si 0.333333 0.666667 0.333333
Si 0.416667 0.75 0.416667
Si 0.5 0.833333 0.333333
Si 0.583333 0.916667 0.416667
Si 0.5 0.666667 0.5
Si 0.583333 0.75 0.583333
Si 0.333333 0.833333 0.5
Si 0.416667 0.916667 0.583333
Si 0.333333 0.666667 0.666667
Si 0.416667 0.75 0.75
Si 0.5 0.833333 0.666667
Si 0.583333 0.916667 0.75
Si 0.5 0.666667 0.833333
Si 0.583333 0.75 0.916667
Si 0.333333 0.833333 0.833333
Si 0.416667 0.916667 0.916667
Si 0.666667 0 0
Si 0.75 0.0833333 0.0833333
Si 0.833333 0.166667 0
Si 0.916667 0.25 0.0833333
Si 0.833333 0 0.166667
Si 0.916667 0.0833333 0.25
Si 0.666667 0.166667 0.166667
Si 0.75 0.25 0.25
Si 0.666667 0 0.333333
Si 0.75 0.0833333 0.416667
Si 0.833333 0.166667 0.333333
Si 0.916667 0.25 0.416667
Si 0.833333 0 0.5
Si 0.916667 0.0833333 0.583333
Si 0.666667 0.166667 0.5
Si 0.75 0.25 0.583333
Si 0.666667 0 0.666667
Si 0.75 0.0833333 0.75
Si 0.833333 0.166667 0.666667
Si 0.916667 0.25 0.75
Si 0.833333 0 0.833333
Si 0.916667 0.0833333 0.916667
Si 0.666667 0.166667 0.833333
Si 0.75 0.25 0.916667
Si 0.666667 0.333333 0
Si 0.75 0.416667 0.0833333
Si 0.833333 0.5 0
Si 0.916667 0.583333 0.0833333
Si 0.833333 0.333333 0.166667
Si 0.916667 0.416667 0.25
Si 0.666667 0.5 0.166667
Si 0.75 0.583333 0.25
Si 0.666667 0.333333 0.333333
Si 0.75 0.416667 0.416667
Si 0.833333 0.5 0.333333
Si 0.916667 0.583333 0.416667
Si 0.833333 0.333333 0.5
Si 0.916667 0.416667 0.583333
Si 0.666667 0.5 0.5
Si 0.75 0.583333 0.583333
Si 0.666667 0.333333 0.666667
Si 0.75 0.416667 0.75
Si 0.833333 0.5 0.666667
Si 0.916667 0.583333 0.75
Si 0.833333 0.333333 0.833333
Si 0.916667 0.416667 0.916667
Si 0.666667 0.5 0.833333
Si 0.75 0.583333 0.916667
Si 0.666667 0.666667 0
Si 0.75 0.75 0.0833333
Si 0.833333 0.833333 0
Si 0.916667 0.916667 0.0833333
Si 0.833333 0.666667 0.166667
Si 0.916667 0.75 0.25
Si 0.666667 0.833333 0.166667
Si 0.75 0.916667 0.25
Si 0.666667 0.666667 0.333333
Si 0.75 0.75 0.416667
Si 0.833333 0.833333 0.333333
Si 0.916667 0.916667 0.416667
Si 0.833333 0.666667 0.5
Si 0.916667 0.75 0.583333
Si 0.666667 0.833333 0.5
Si 0.75 0.916667 0.583333
Si 0.666667 0.666667 0.666667
Si 0.75 0.75 0.75
Si 0.833333 0.833333 0.666667
Si 0.916667 0.916667 0.75
Si 0.833333 0.666667 0.833333
Si 0.916667 0.75 0.916667
Si 0.666667 0.833333 0.833333
Si 0.75 0.916667 0.916667
