data_none

_audit_creation_method generated by ABACUS

_cell_length_a 4.44009
_cell_length_b 7.68503
_cell_length_c 7.31164
_cell_angle_alpha 90
_cell_angle_beta 90
_cell_angle_gamma 90

loop_
_atom_site_label
_atom_site_fract_x
_atom_site_fract_y
_atom_site_fract_z
In 0 0.668118 0.488149
In 0 0.331882 0.988149
In 0.5 0.168118 0.488149
In 0.5 0.831882 0.988149
Sb 0 0.665502 0.861851
Sb 0 0.334498 0.361851
Sb 0.5 0.165502 0.861851
Sb 0.5 0.834498 0.361851
