data_none

_audit_creation_method generated by ABACUS

_cell_length_a 3.13947
_cell_length_b 5.45524
_cell_length_c 10.1137
_cell_angle_alpha 90
_cell_angle_beta 90
_cell_angle_gamma 90

_symmetry_space_group_name_H-M 
_symmetry_Int_Tables_number 

loop_
_atom_site_label
_atom_site_fract_x
_atom_site_fract_y
_atom_site_fract_z
Li 0.5 0.168372 0
Li 0 0.668372 0.5
Mg 0 0.664555 0
Mg 0 0.00020362 0.249099
Mg 0.5 0.500204 0.250901
Mg 0.5 0.164555 0.5
Mg 0.5 0.500204 0.749099
Mg 0 0.00020362 0.750901
