data_test

_audit_creation_method generated by ABACUS

_cell_length_a 2.80729
_cell_length_b 2.80729
_cell_length_c 45.8428
_cell_angle_alpha 90
_cell_angle_beta 90
_cell_angle_gamma 60

_symmetry_space_group_name_H-M 
_symmetry_Int_Tables_number 

loop_
_atom_site_label
_atom_site_fract_x
_atom_site_fract_y
_atom_site_fract_z
Al 0 0 9.34629e-05
Al 0.333333 0.333333 0.0497702
Al 0.666667 0.666667 0.0997886
Al 0 0 0.149642
Al 0.333333 0.333333 0.199577
Al 0.766667 0.766667 0.250501
Al 0.1 0.1 0.300325
Al 0.433333 0.433333 0.350318
Al 0.766667 0.766667 0.399981
Al 0.1 0.1 0.45
Al 0.766667 0.766667 0.500019
Al 0.433333 0.433333 0.549682
Al 0.1 0.1 0.599675
Al 0.766667 0.766667 0.649499
Al 0.333333 0.333333 0.700423
Al 0 0 0.750358
Al 0.666667 0.666667 0.800211
Al 0.333333 0.333333 0.85023
Al 0 0 0.899907
Al 0.666667 0.666667 0.95
