data_none

_audit_creation_method generated by ABACUS

_cell_length_a 6.31854
_cell_length_b 10.8867
_cell_length_c 10.3352
_cell_angle_alpha 90
_cell_angle_beta 90
_cell_angle_gamma 90

_symmetry_space_group_name_H-M 
_symmetry_Int_Tables_number 

loop_
_atom_site_label
_atom_site_fract_x
_atom_site_fract_y
_atom_site_fract_z
Li 0 0.667312 0.5
Li 0.5 0.167312 0.5
Mg 0.5 0.666653 0
Mg 0 0.666238 0
Mg 0.24762 0.915712 0.5
Mg 0.250094 0.916873 0
Mg 0.25238 0.415712 0.5
Mg 0.249906 0.416873 0
Mg 0.248028 0.0848683 0.255016
Mg 0.248028 0.0848683 0.744984
Mg 0.251972 0.584868 0.255016
Mg 0.251972 0.584868 0.744984
Mg 0.5 0.831761 0.253353
Mg 0.5 0.831761 0.746647
Mg 0 0.833023 0.250291
Mg 0 0.833023 0.749709
Mg 0 0.166653 0
Mg 0.5 0.166238 0
Mg 0.74762 0.415712 0.5
Mg 0.750094 0.416873 0
Mg 0.75238 0.915712 0.5
Mg 0.749906 0.916873 0
Mg 0.748028 0.584868 0.255016
Mg 0.748028 0.584868 0.744984
Mg 0.751972 0.0848683 0.255016
Mg 0.751972 0.0848683 0.744984
Mg 0 0.331761 0.253353
Mg 0 0.331761 0.746647
Mg 0.5 0.333023 0.250291
Mg 0.5 0.333023 0.749709
Al 0.5 0.665579 0.5
Al 0 0.165579 0.5
