data_none

_audit_creation_method generated by ABACUS

_cell_length_a 3.09618
_cell_length_b 5.26864
_cell_length_c 9.98043
_cell_angle_alpha 90
_cell_angle_beta 90
_cell_angle_gamma 90

_symmetry_space_group_name_H-M 
_symmetry_Int_Tables_number 

loop_
_atom_site_label
_atom_site_fract_x
_atom_site_fract_y
_atom_site_fract_z
Li 0.5 0.165837 0
Li 0.5 0.502214 0.249735
Li 0 0.00221429 0.250265
Li 0 0.665837 0.5
Li 0 0.00221429 0.749735
Li 0.5 0.502214 0.750265
Mg 0 0.663068 0
Mg 0.5 0.163068 0.5
