data_test

_audit_creation_method generated by ABACUS

_cell_length_a 15.8804
_cell_length_b 15.8804
_cell_length_c 15.8804
_cell_angle_alpha 90
_cell_angle_beta 90
_cell_angle_gamma 90

_symmetry_space_group_name_H-M 
_symmetry_Int_Tables_number 

loop_
_atom_site_label
_atom_site_fract_x
_atom_site_fract_y
_atom_site_fract_z
Al 0.125 0.125 0
Al 0.125 0 0.125
Al 0 0.125 0.125
Al 0 0 0.25
Al 0.125 0.125 0.25
Al 0.125 0 0.375
Al 0 0.125 0.375
Al 0 0 0.5
Al 0.125 0.125 0.5
Al 0.125 0 0.625
Al 0 0.125 0.625
Al 0 0 0.75
Al 0.125 0.125 0.75
Al 0.125 0 0.875
Al 0 0.125 0.875
Al 0 0.25 0
Al 0.125 0.375 0
Al 0.125 0.25 0.125
Al 0 0.375 0.125
Al 0 0.25 0.25
Al 0.125 0.375 0.25
Al 0.125 0.25 0.375
Al 0 0.375 0.375
Al 0 0.25 0.5
Al 0.125 0.375 0.5
Al 0.125 0.25 0.625
Al 0 0.375 0.625
Al 0 0.25 0.75
Al 0.125 0.375 0.75
Al 0.125 0.25 0.875
Al 0 0.375 0.875
Al 0 0.5 0
Al 0.125 0.625 0
Al 0.125 0.5 0.125
Al 0 0.625 0.125
Al 0 0.5 0.25
Al 0.125 0.625 0.25
Al 0.125 0.5 0.375
Al 0 0.625 0.375
Al 0 0.5 0.5
Al 0.125 0.625 0.5
Al 0.125 0.5 0.625
Al 0 0.625 0.625
Al 0 0.5 0.75
Al 0.125 0.625 0.75
Al 0.125 0.5 0.875
Al 0 0.625 0.875
Al 0 0.75 0
Al 0.125 0.875 0
Al 0.125 0.75 0.125
Al 0 0.875 0.125
Al 0 0.75 0.25
Al 0.125 0.875 0.25
Al 0.125 0.75 0.375
Al 0 0.875 0.375
Al 0 0.75 0.5
Al 0.125 0.875 0.5
Al 0.125 0.75 0.625
Al 0 0.875 0.625
Al 0 0.75 0.75
Al 0.125 0.875 0.75
Al 0.125 0.75 0.875
Al 0 0.875 0.875
Al 0.25 0 0
Al 0.375 0.125 0
Al 0.375 0 0.125
Al 0.25 0.125 0.125
Al 0.25 0 0.25
Al 0.375 0.125 0.25
Al 0.375 0 0.375
Al 0.25 0.125 0.375
Al 0.25 0 0.5
Al 0.375 0.125 0.5
Al 0.375 0 0.625
Al 0.25 0.125 0.625
Al 0.25 0 0.75
Al 0.375 0.125 0.75
Al 0.375 0 0.875
Al 0.25 0.125 0.875
Al 0.25 0.25 0
Al 0.375 0.375 0
Al 0.375 0.25 0.125
Al 0.25 0.375 0.125
Al 0.25 0.25 0.25
Al 0.375 0.375 0.25
Al 0.375 0.25 0.375
Al 0.25 0.375 0.375
Al 0.25 0.25 0.5
Al 0.375 0.375 0.5
Al 0.375 0.25 0.625
Al 0.25 0.375 0.625
Al 0.25 0.25 0.75
Al 0.375 0.375 0.75
Al 0.375 0.25 0.875
Al 0.25 0.375 0.875
Al 0.25 0.5 0
Al 0.375 0.625 0
Al 0.375 0.5 0.125
Al 0.25 0.625 0.125
Al 0.25 0.5 0.25
Al 0.375 0.625 0.25
Al 0.375 0.5 0.375
Al 0.25 0.625 0.375
Al 0.25 0.5 0.5
Al 0.375 0.625 0.5
Al 0.375 0.5 0.625
Al 0.25 0.625 0.625
Al 0.25 0.5 0.75
Al 0.375 0.625 0.75
Al 0.375 0.5 0.875
Al 0.25 0.625 0.875
Al 0.25 0.75 0
Al 0.375 0.875 0
Al 0.375 0.75 0.125
Al 0.25 0.875 0.125
Al 0.25 0.75 0.25
Al 0.375 0.875 0.25
Al 0.375 0.75 0.375
Al 0.25 0.875 0.375
Al 0.25 0.75 0.5
Al 0.375 0.875 0.5
Al 0.375 0.75 0.625
Al 0.25 0.875 0.625
Al 0.25 0.75 0.75
Al 0.375 0.875 0.75
Al 0.375 0.75 0.875
Al 0.25 0.875 0.875
Al 0.5 0 0
Al 0.625 0.125 0
Al 0.625 0 0.125
Al 0.5 0.125 0.125
Al 0.5 0 0.25
Al 0.625 0.125 0.25
Al 0.625 0 0.375
Al 0.5 0.125 0.375
Al 0.5 0 0.5
Al 0.625 0.125 0.5
Al 0.625 0 0.625
Al 0.5 0.125 0.625
Al 0.5 0 0.75
Al 0.625 0.125 0.75
Al 0.625 0 0.875
Al 0.5 0.125 0.875
Al 0.5 0.25 0
Al 0.625 0.375 0
Al 0.625 0.25 0.125
Al 0.5 0.375 0.125
Al 0.5 0.25 0.25
Al 0.625 0.375 0.25
Al 0.625 0.25 0.375
Al 0.5 0.375 0.375
Al 0.5 0.25 0.5
Al 0.625 0.375 0.5
Al 0.625 0.25 0.625
Al 0.5 0.375 0.625
Al 0.5 0.25 0.75
Al 0.625 0.375 0.75
Al 0.625 0.25 0.875
Al 0.5 0.375 0.875
Al 0.5 0.5 0
Al 0.625 0.625 0
Al 0.625 0.5 0.125
Al 0.5 0.625 0.125
Al 0.5 0.5 0.25
Al 0.625 0.625 0.25
Al 0.625 0.5 0.375
Al 0.5 0.625 0.375
Al 0.5 0.5 0.5
Al 0.625 0.625 0.5
Al 0.625 0.5 0.625
Al 0.5 0.625 0.625
Al 0.5 0.5 0.75
Al 0.625 0.625 0.75
Al 0.625 0.5 0.875
Al 0.5 0.625 0.875
Al 0.5 0.75 0
Al 0.625 0.875 0
Al 0.625 0.75 0.125
Al 0.5 0.875 0.125
Al 0.5 0.75 0.25
Al 0.625 0.875 0.25
Al 0.625 0.75 0.375
Al 0.5 0.875 0.375
Al 0.5 0.75 0.5
Al 0.625 0.875 0.5
Al 0.625 0.75 0.625
Al 0.5 0.875 0.625
Al 0.5 0.75 0.75
Al 0.625 0.875 0.75
Al 0.625 0.75 0.875
Al 0.5 0.875 0.875
Al 0.75 0 0
Al 0.875 0.125 0
Al 0.875 0 0.125
Al 0.75 0.125 0.125
Al 0.75 0 0.25
Al 0.875 0.125 0.25
Al 0.875 0 0.375
Al 0.75 0.125 0.375
Al 0.75 0 0.5
Al 0.875 0.125 0.5
Al 0.875 0 0.625
Al 0.75 0.125 0.625
Al 0.75 0 0.75
Al 0.875 0.125 0.75
Al 0.875 0 0.875
Al 0.75 0.125 0.875
Al 0.75 0.25 0
Al 0.875 0.375 0
Al 0.875 0.25 0.125
Al 0.75 0.375 0.125
Al 0.75 0.25 0.25
Al 0.875 0.375 0.25
Al 0.875 0.25 0.375
Al 0.75 0.375 0.375
Al 0.75 0.25 0.5
Al 0.875 0.375 0.5
Al 0.875 0.25 0.625
Al 0.75 0.375 0.625
Al 0.75 0.25 0.75
Al 0.875 0.375 0.75
Al 0.875 0.25 0.875
Al 0.75 0.375 0.875
Al 0.75 0.5 0
Al 0.875 0.625 0
Al 0.875 0.5 0.125
Al 0.75 0.625 0.125
Al 0.75 0.5 0.25
Al 0.875 0.625 0.25
Al 0.875 0.5 0.375
Al 0.75 0.625 0.375
Al 0.75 0.5 0.5
Al 0.875 0.625 0.5
Al 0.875 0.5 0.625
Al 0.75 0.625 0.625
Al 0.75 0.5 0.75
Al 0.875 0.625 0.75
Al 0.875 0.5 0.875
Al 0.75 0.625 0.875
Al 0.75 0.75 0
Al 0.875 0.875 0
Al 0.875 0.75 0.125
Al 0.75 0.875 0.125
Al 0.75 0.75 0.25
Al 0.875 0.875 0.25
Al 0.875 0.75 0.375
Al 0.75 0.875 0.375
Al 0.75 0.75 0.5
Al 0.875 0.875 0.5
Al 0.875 0.75 0.625
Al 0.75 0.875 0.625
Al 0.75 0.75 0.75
Al 0.875 0.875 0.75
Al 0.875 0.75 0.875
Al 0.75 0.875 0.875
