data_none

_audit_creation_method generated by ABACUS

_cell_length_a 3.16985
_cell_length_b 5.04986
_cell_length_c 5.40973
_cell_angle_alpha 90
_cell_angle_beta 90
_cell_angle_gamma 90

_symmetry_space_group_name_H-M 
_symmetry_Int_Tables_number 

loop_
_atom_site_label
_atom_site_fract_x
_atom_site_fract_y
_atom_site_fract_z
Li 0.5 0 0.167795
Mg 0 0 0.66836
Mg 0 0.5 0.329604
Mg 0.5 0.5 0.834241
