data_none

_audit_creation_method generated by ABACUS

_cell_length_a 4.58458
_cell_length_b 9.66647
_cell_length_c 4.43089
_cell_angle_alpha 90
_cell_angle_beta 90
_cell_angle_gamma 90

_symmetry_space_group_name_H-M 
_symmetry_Int_Tables_number 

loop_
_atom_site_label
_atom_site_fract_x
_atom_site_fract_y
_atom_site_fract_z
Li 0.5 0.258607 0.25
Li 0 0.241393 0.75
Li 0 0.410138 0.25
Li 0.5 0.0898618 0.75
Li 0 0.758607 0.25
Li 0.5 0.741393 0.75
Li 0.5 0.910138 0.25
Li 0 0.589862 0.75
Al 0 0.074982 0.25
Al 0.5 0.425018 0.75
Al 0.5 0.574982 0.25
Al 0 0.925018 0.75
