data_none

_audit_creation_method generated by ABACUS

_cell_length_a 3.82442
_cell_length_b 3.82442
_cell_length_c 27.0427
_cell_angle_alpha 90
_cell_angle_beta 90
_cell_angle_gamma 90

loop_
_atom_site_label
_atom_site_fract_x
_atom_site_fract_y
_atom_site_fract_z
Si 0 0 0
Si 0.5 0 0.05
Si 0.5 0.5 0.1
Si 0 0.5 0.15
Si 0 0 0.2
Si 0.5 0 0.25
Si 0.5 0.5 0.3
Si 0 0.5 0.35
Si 0 0 0.4
Si 0.5 0 0.45
Si 0.5 0.5 0.5
Si 0 0.5 0.55
Si 0 0 0.6
