data_none

_audit_creation_method generated by ABACUS

_cell_length_a 2.85103
_cell_length_b 4.03196
_cell_length_c 19.9572
_cell_angle_alpha 90
_cell_angle_beta 90
_cell_angle_gamma 90

loop_
_atom_site_label
_atom_site_fract_x
_atom_site_fract_y
_atom_site_fract_z
Al 0 0 0
Al 0.5 0.5 0.0714286
Al 0 0 0.142857
Al 0.5 0.5 0.214286
Al 0 0 0.285714
Al 0.5 0.5 0.357143
Al 0 0 0.428571
