data_none

_audit_creation_method generated by ABACUS

_cell_length_a 10.2026
_cell_length_b 10.2026
_cell_length_c 10.2026
_cell_angle_alpha 90
_cell_angle_beta 90
_cell_angle_gamma 90

_symmetry_space_group_name_H-M 
_symmetry_Int_Tables_number 

loop_
_atom_site_label
_atom_site_fract_x
_atom_site_fract_y
_atom_site_fract_z
Al 0.0858022 0.632104 0.253783
Al 0.162232 0.606306 0.964439
Al 0.433951 0.560502 0.451998
Al 0.9599 0.14195 0.878419
Al 0.78113 0.26803 0.42238
Al 0.307556 0.73111 0.132494
Al 0.0526891 0.372804 0.707439
Al 0.759041 0.533119 0.37469
Al 0.096729 0.544235 0.120898
Al 0.187091 0.750697 0.623783
Al 0.30462 0.167975 0.649012
Al 0.503301 0.339546 0.646064
Al 0.00557051 0.420363 0.536985
Al 0.225842 0.921406 0.441201
Al 0.667094 0.0657746 0.734919
Al 0.54263 0.822484 0.926218
Al 0.158517 0.0498945 0.301279
Al 0.779943 0.0216259 0.770426
Al 0.360498 0.230983 0.515725
Al 0.109231 0.12692 0.424679
Al 0.356872 0.999079 0.528172
Al 0.270229 0.668338 0.488813
Al 0.906755 0.850871 0.289226
Al 0.627458 0.699357 0.805882
Al 0.534042 0.685181 0.992432
Al 0.419182 0.970071 0.32958
Al 0.105242 0.740127 0.864289
Al 0.372641 0.0180057 0.0745427
Al 0.838623 0.422369 0.35599
Al 0.919433 0.843221 0.094431
Al 0.731409 0.698219 0.935632
Al 0.678282 0.503383 0.504234
Al 0.303404 0.289808 0.383927
Al 0.95686 0.737512 0.58554
Al 0.787565 0.956954 0.665249
Al 0.280523 0.855917 0.512023
Al 0.0289099 0.949389 0.427655
Al 0.773785 0.373611 0.973378
Al 0.259463 0.538183 0.78278
Al 0.531827 0.453291 0.309607
Al 0.75355 0.109683 0.542496
Al 0.385153 0.455281 0.768691
Al 0.467327 0.976446 0.844745
Al 0.513568 0.985957 0.535571
Al 0.363397 0.565764 0.150986
Al 0.694389 0.386527 0.120564
Al 0.466901 0.737949 0.290391
Al 0.0532638 0.0591063 0.987551
Al 0.188055 0.525684 0.243087
Al 0.121136 0.210067 0.552669
Al 0.951468 0.416076 0.661619
Al 0.938256 0.948454 0.80356
Al 0.697893 0.244862 0.735935
Al 0.120911 0.445825 0.919219
Al 0.248469 0.823486 0.962249
Al 0.0818256 0.239855 0.837221
Al 0.344005 0.844144 0.866357
Al 0.443555 0.18381 0.0268805
Al 0.0883881 0.346689 0.435754
Al 0.720243 0.107602 0.883901
Al 0.811308 0.778862 0.694638
Al 0.518128 0.622754 0.343809
Al 0.0847337 0.764543 0.186767
Al 0.778204 0.659856 0.825125
