data_none

_audit_creation_method generated by ABACUS

_cell_length_a 11.3941
_cell_length_b 3.08818
_cell_length_c 5.3552
_cell_angle_alpha 90
_cell_angle_beta 117.182
_cell_angle_gamma 90

_symmetry_space_group_name_H-M 
_symmetry_Int_Tables_number 

loop_
_atom_site_label
_atom_site_fract_x
_atom_site_fract_y
_atom_site_fract_z
Li 0.125181 0.5 0.291595
Li 0.374819 0 0.708405
Li 0.625181 0 0.291595
Li 0.874819 0.5 0.708405
Mg 0.376323 0.5 0.206517
Mg 0.123677 0 0.793483
Mg 0.876323 0 0.206517
Mg 0.623677 0.5 0.793483
