data_test

_audit_creation_method generated by ABACUS

_cell_length_a 3.74435
_cell_length_b 3.74435
_cell_length_c 3.74435
_cell_angle_alpha 97.4425
_cell_angle_beta 97.4425
_cell_angle_gamma 137.811

_symmetry_space_group_name_H-M 
_symmetry_Int_Tables_number 

loop_
_atom_site_label
_atom_site_fract_x
_atom_site_fract_y
_atom_site_fract_z
Si 0 0 0
Si 0.75 0.25 0.5
