data_none

_audit_creation_method generated by ABACUS

_cell_length_a 3.80457
_cell_length_b 3.80457
_cell_length_c 22.867
_cell_angle_alpha 90
_cell_angle_beta 90
_cell_angle_gamma 90

loop_
_atom_site_label
_atom_site_fract_x
_atom_site_fract_y
_atom_site_fract_z
Si 0 0 0
Si 0.5 0 0.0588235
Si 0.5 0.5 0.117647
Si 0 0.5 0.176471
Si 0 0 0.235294
Si 0.5 0 0.294118
Si 0.5 0.5 0.352941
Si 0 0.5 0.411765
Si 0 0 0.470588
Si 0.5 0 0.529412
