data_none

_audit_creation_method generated by ABACUS

_cell_length_a 4.43389
_cell_length_b 4.43389
_cell_length_c 14.1191
_cell_angle_alpha 90
_cell_angle_beta 90
_cell_angle_gamma 120

_symmetry_space_group_name_H-M 
_symmetry_Int_Tables_number 

loop_
_atom_site_label
_atom_site_fract_x
_atom_site_fract_y
_atom_site_fract_z
Li 0.666667 0.333333 0.931123
Li 0.666667 0.333333 0.735544
Li 0 0 0
Li 0.333333 0.666667 0.264456
Li 0.333333 0.666667 0.0688769
Li 0.666667 0.333333 0.333333
Li 0 0 0.59779
Li 0 0 0.40221
Li 0.333333 0.666667 0.666667
Al 0.333333 0.666667 0.863018
Al 0 0 0.803648
Al 0 0 0.196352
Al 0.666667 0.333333 0.136982
Al 0.666667 0.333333 0.529685
Al 0.333333 0.666667 0.470315
