data_none

_audit_creation_method generated by ABACUS

_cell_length_a 3.84716
_cell_length_b 3.84716
_cell_length_c 6.34191
_cell_angle_alpha 90
_cell_angle_beta 90
_cell_angle_gamma 120

loop_
_atom_site_label
_atom_site_fract_x
_atom_site_fract_y
_atom_site_fract_z
Ga 0.666667 0.333333 0.500054
Ga 0.333333 0.666667 5.449e-05
P 0.666667 0.333333 0.873946
P 0.333333 0.666667 0.373946
