data_none

_audit_creation_method generated by ABACUS

_cell_length_a 10.5217
_cell_length_b 14.7968
_cell_length_c 9.11609
_cell_angle_alpha 90
_cell_angle_beta 125.046
_cell_angle_gamma 90

_symmetry_space_group_name_H-M 
_symmetry_Int_Tables_number 

loop_
_atom_site_label
_atom_site_fract_x
_atom_site_fract_y
_atom_site_fract_z
Li 0.31596 0 0.709103
Li 0.81596 0.5 0.709103
Mg 0.603102 0 0.288207
Mg 0.008862 0 0.656659
Mg 0.99926 0 0.998672
Mg 0.34315 0 0.342919
Mg 0.539336 0.859935 0.997193
Mg 0.442202 0.843326 0.601943
Mg 0.841741 0.842487 0.397791
Mg 0.82743 0.827614 0.000932
Mg 0.198969 0.801993 0.685403
Mg 0.514958 0.801028 0.316445
Mg 0.514958 0.198972 0.316445
Mg 0.198969 0.198007 0.685403
Mg 0.82743 0.172386 0.000932
Mg 0.841741 0.157513 0.397791
Mg 0.442202 0.156674 0.601943
Mg 0.539336 0.140065 0.997193
Mg 0.103102 0.5 0.288207
Mg 0.508862 0.5 0.656659
Mg 0.49926 0.5 0.998672
Mg 0.84315 0.5 0.342919
Mg 0.039336 0.359935 0.997193
Mg 0.942202 0.343326 0.601943
Mg 0.341741 0.342487 0.397791
Mg 0.32743 0.327614 0.000932
Mg 0.698969 0.301993 0.685403
Mg 0.014958 0.301028 0.316445
Mg 0.014958 0.698972 0.316445
Mg 0.698969 0.698007 0.685403
Mg 0.32743 0.672386 0.000932
Mg 0.341741 0.657513 0.397791
Mg 0.942202 0.656674 0.601943
Mg 0.039336 0.640065 0.997193
Al 0.815017 0 0.180003
Al 0.631226 0 0.817716
Al 0.276264 0.909176 0.00128
Al 0.0941675 0.907608 0.368656
Al 0.727124 0.907236 0.634622
Al 0.49767 0.316435 0.815174
Al 0.681857 0.316316 0.183922
Al 0.681857 0.683684 0.183922
Al 0.49767 0.683565 0.815174
Al 0.727124 0.0927635 0.634622
Al 0.0941675 0.0923915 0.368656
Al 0.276264 0.090824 0.00128
Al 0.315017 0.5 0.180003
Al 0.131226 0.5 0.817716
Al 0.776264 0.409176 0.00128
Al 0.594167 0.407608 0.368656
Al 0.227124 0.407236 0.634622
Al 0.99767 0.816435 0.815174
Al 0.181857 0.816316 0.183922
Al 0.181857 0.183684 0.183922
Al 0.99767 0.183565 0.815174
Al 0.227124 0.592764 0.634622
Al 0.594167 0.592392 0.368656
Al 0.776264 0.590824 0.00128
