data_none

_audit_creation_method generated by ABACUS

_cell_length_a 10.5483
_cell_length_b 14.7262
_cell_length_c 9.12874
_cell_angle_alpha 90
_cell_angle_beta 124.469
_cell_angle_gamma 90

_symmetry_space_group_name_H-M 
_symmetry_Int_Tables_number 

loop_
_atom_site_label
_atom_site_fract_x
_atom_site_fract_y
_atom_site_fract_z
Li 0.634126 0 0.818157
Li 0.134126 0.5 0.818157
Mg 0.002089 0 0.655152
Mg 0.315552 0 0.713353
Mg 0.998692 0 0.999139
Mg 0.344424 0 0.345128
Mg 0.602992 0 0.285884
Mg 0.541361 0.857005 4.6e-05
Mg 0.445283 0.842397 0.602896
Mg 0.840704 0.842134 0.400008
Mg 0.827585 0.82815 0.999621
Mg 0.514311 0.800976 0.315465
Mg 0.699391 0.300414 0.68401
Mg 0.699391 0.699586 0.68401
Mg 0.514311 0.199024 0.315465
Mg 0.827585 0.17185 0.999621
Mg 0.840704 0.157866 0.400008
Mg 0.445283 0.157603 0.602896
Mg 0.541361 0.142995 4.6e-05
Mg 0.502089 0.5 0.655152
Mg 0.815552 0.5 0.713353
Mg 0.498692 0.5 0.999139
Mg 0.844424 0.5 0.345128
Mg 0.102992 0.5 0.285884
Mg 0.041361 0.357005 4.6e-05
Mg 0.945283 0.342397 0.602896
Mg 0.340704 0.342134 0.400008
Mg 0.327585 0.32815 0.999621
Mg 0.014311 0.300976 0.315465
Mg 0.199391 0.800414 0.68401
Mg 0.199391 0.199586 0.68401
Mg 0.014311 0.699024 0.315465
Mg 0.327585 0.67185 0.999621
Mg 0.340704 0.657866 0.400008
Mg 0.945283 0.657603 0.602896
Mg 0.041361 0.642995 4.6e-05
Al 0.815193 0 0.17872
Al 0.276073 0.909008 0.002438
Al 0.726406 0.907307 0.631115
Al 0.590899 0.407218 0.366783
Al 0.498963 0.318538 0.815372
Al 0.682493 0.317462 0.184483
Al 0.682493 0.682538 0.184483
Al 0.498963 0.681462 0.815372
Al 0.590899 0.592782 0.366783
Al 0.726406 0.0926925 0.631115
Al 0.276073 0.0909925 0.002438
Al 0.315193 0.5 0.17872
Al 0.776073 0.409008 0.002438
Al 0.226406 0.407307 0.631115
Al 0.090899 0.907218 0.366783
Al 0.998963 0.818538 0.815372
Al 0.182493 0.817462 0.184483
Al 0.182493 0.182538 0.184483
Al 0.998963 0.181462 0.815372
Al 0.090899 0.092782 0.366783
Al 0.226406 0.592693 0.631115
Al 0.776073 0.590992 0.002438
