data_none

_audit_creation_method generated by ABACUS

_cell_length_a 6.27327
_cell_length_b 10.8406
_cell_length_c 5.0497
_cell_angle_alpha 90
_cell_angle_beta 90
_cell_angle_gamma 90

_symmetry_space_group_name_H-M 
_symmetry_Int_Tables_number 

loop_
_atom_site_label
_atom_site_fract_x
_atom_site_fract_y
_atom_site_fract_z
Li 0.5 0.169011 0.5
Li 0 0.669011 0.5
Mg 0.252023 0.084911 0
Mg 0.747977 0.084911 0
Mg 0.5 0.832794 0
Mg 0.245495 0.914966 0.5
Mg 0.754505 0.914966 0.5
Mg 0.5 0.666273 0.5
Mg 0.752023 0.584911 0
Mg 0.247977 0.584911 0
Mg 0 0.332794 0
Mg 0.745495 0.414966 0.5
Mg 0.254505 0.414966 0.5
Mg 0 0.166273 0.5
Al 0.5 0.332168 0
Al 0 0.832168 0
