data_none

_audit_creation_method generated by ABACUS

_cell_length_a 3.05125
_cell_length_b 5.05526
_cell_length_c 5.27694
_cell_angle_alpha 90
_cell_angle_beta 90
_cell_angle_gamma 90

_symmetry_space_group_name_H-M 
_symmetry_Int_Tables_number 

loop_
_atom_site_label
_atom_site_fract_x
_atom_site_fract_y
_atom_site_fract_z
Li 0 0 0.994526
Li 0.5 0 0.493404
Li 0.5 0.5 0.836007
Mg 0 0.5 0.342731
