data_none

_audit_creation_method generated by ABACUS

_cell_length_a 3.88225
_cell_length_b 3.88225
_cell_length_c 6.37394
_cell_angle_alpha 90
_cell_angle_beta 90
_cell_angle_gamma 120

loop_
_symmetry_equiv_pos_as_xyz
'x, +y, +z'
'-x+y, -x, +z'
'-y, x-y, +z'
'-x+y, +y, +z'
'-y, -x, +z'
'x, x-y, +z'
'+y0, -x+y+0, +z-1/2'
'-x0, -y+0, +z-1/2'
'x-y0, x+0, +z-1/2'
'-x0, -x+y+0, +z-1/2'
'x-y0, -y+0, +z-1/2'
'+y0, x+0, +z-1/2'
loop_
_atom_site_label
_atom_site_type_symbol
_atom_site_symmetry_multiplicity
_atom_site_fract_x
_atom_site_fract_y
_atom_site_fract_z
_atom_site_occupancy
Al Al 2 0.333333 0.666667 9.7585e-05 1
