data_none

_audit_creation_method generated by ABACUS

_cell_length_a 2.85953
_cell_length_b 2.85953
_cell_length_c 4.69228
_cell_angle_alpha 90
_cell_angle_beta 90
_cell_angle_gamma 120

_symmetry_space_group_name_H-M 
_symmetry_Int_Tables_number 

loop_
_atom_site_label
_atom_site_fract_x
_atom_site_fract_y
_atom_site_fract_z
Al 0 0 0
Al 0.666667 0.333333 0.5
