data_none

_audit_creation_method generated by ABACUS

_cell_length_a 10.5202
_cell_length_b 10.5202
_cell_length_c 10.5202
_cell_angle_alpha 90
_cell_angle_beta 90
_cell_angle_gamma 90

_symmetry_space_group_name_H-M 
_symmetry_Int_Tables_number 

loop_
_atom_site_label
_atom_site_fract_x
_atom_site_fract_y
_atom_site_fract_z
Li 0 0 0
Li 0.5 0.5 0.5
Mg 0.958043 0.356988 0.356988
Mg 0.169192 0.169192 0.169192
Mg 0.458043 0.143012 0.143012
Mg 0.669192 0.330808 0.330808
Mg 0.541957 0.856988 0.143012
Mg 0.143012 0.143012 0.458043
Mg 0.143012 0.541957 0.856988
Mg 0.330808 0.330808 0.669192
Mg 0.356988 0.958043 0.356988
Mg 0.856988 0.143012 0.541957
Mg 0.856988 0.541957 0.143012
Mg 0.356988 0.356988 0.958043
Mg 0.330808 0.669192 0.330808
Mg 0.143012 0.856988 0.541957
Mg 0.143012 0.458043 0.143012
Mg 0.541957 0.143012 0.856988
Mg 0.458043 0.856988 0.856988
Mg 0.669192 0.669192 0.669192
Mg 0.958043 0.643012 0.643012
Mg 0.169192 0.830808 0.830808
Mg 0.041957 0.356988 0.643012
Mg 0.643012 0.643012 0.958043
Mg 0.643012 0.041957 0.356988
Mg 0.830808 0.830808 0.169192
Mg 0.856988 0.458043 0.856988
Mg 0.356988 0.643012 0.041957
Mg 0.356988 0.041957 0.643012
Mg 0.856988 0.856988 0.458043
Mg 0.830808 0.169192 0.830808
Mg 0.643012 0.356988 0.041957
Mg 0.643012 0.958043 0.643012
Mg 0.041957 0.643012 0.356988
Al 0.72315 0.0907165 0.0907165
Al 0.22315 0.409283 0.409283
Al 0.27685 0.909283 0.0907165
Al 0.409283 0.22315 0.409283
Al 0.909283 0.0907165 0.27685
Al 0.0907165 0.72315 0.0907165
Al 0.0907165 0.909283 0.27685
Al 0.0907165 0.0907165 0.72315
Al 0.0907165 0.27685 0.909283
Al 0.909283 0.27685 0.0907165
Al 0.409283 0.409283 0.22315
Al 0.27685 0.0907165 0.909283
Al 0.22315 0.590717 0.590717
Al 0.72315 0.909283 0.909283
Al 0.77685 0.409283 0.590717
Al 0.909283 0.72315 0.909283
Al 0.409283 0.590717 0.77685
Al 0.590717 0.22315 0.590717
Al 0.590717 0.409283 0.77685
Al 0.590717 0.590717 0.22315
Al 0.590717 0.77685 0.409283
Al 0.409283 0.77685 0.590717
Al 0.909283 0.909283 0.72315
Al 0.77685 0.590717 0.409283
