data_none

_audit_creation_method generated by ABACUS

_cell_length_a 12.2843
_cell_length_b 12.7921
_cell_length_c 5.90077
_cell_angle_alpha 90
_cell_angle_beta 90
_cell_angle_gamma 90

_symmetry_space_group_name_H-M 
_symmetry_Int_Tables_number 

loop_
_atom_site_label
_atom_site_fract_x
_atom_site_fract_y
_atom_site_fract_z
Li 0.263516 0.25 0.75
Li 0.736484 0.25 0.25
Li 0.736484 0.75 0.25
Li 0.263516 0.75 0.75
Li 0.5 0.805776 0.5
Li 0.5 0.305776 0
Li 0.5 0.194224 0.5
Li 0.5 0.694224 0
Li 0.289332 0 0.390564
Li 0.710668 0 0.609436
Li 0.210668 0 0.890564
Li 0.789332 0 0.109436
Li 0.763516 0.75 0.75
Li 0.236484 0.75 0.25
Li 0.236484 0.25 0.25
Li 0.763516 0.25 0.75
Li 0 0.305776 0.5
Li 0 0.805776 0
Li 0 0.694224 0.5
Li 0 0.194224 0
Li 0.789332 0.5 0.390564
Li 0.210668 0.5 0.609436
Li 0.710668 0.5 0.890564
Li 0.289332 0.5 0.109436
Al 0.611045 0.614181 0.537456
Al 0.388955 0.614181 0.462544
Al 0.388955 0.114181 0.037456
Al 0.611045 0.114181 0.962544
Al 0.388955 0.385819 0.462544
Al 0.611045 0.385819 0.537456
Al 0.611045 0.885819 0.962544
Al 0.388955 0.885819 0.037456
Al 0.972505 0 0.791472
Al 0.027495 0 0.208528
Al 0.527495 0 0.291472
Al 0.472505 0 0.708528
Al 0.111045 0.114181 0.537456
Al 0.888955 0.114181 0.462544
Al 0.888955 0.614181 0.037456
Al 0.111045 0.614181 0.962544
Al 0.888955 0.885819 0.462544
Al 0.111045 0.885819 0.537456
Al 0.111045 0.385819 0.962544
Al 0.888955 0.385819 0.037456
Al 0.472505 0.5 0.791472
Al 0.527495 0.5 0.208528
Al 0.027495 0.5 0.291472
Al 0.972505 0.5 0.708528
