data_none

_audit_creation_method generated by ABACUS

_cell_length_a 4.386
_cell_length_b 4.386
_cell_length_c 7.21144
_cell_angle_alpha 90
_cell_angle_beta 90
_cell_angle_gamma 120

loop_
_atom_site_label
_atom_site_fract_x
_atom_site_fract_y
_atom_site_fract_z
In 0.666667 0.333333 0.500588
In 0.333333 0.666667 0.00058814
As 0.666667 0.333333 0.874912
As 0.333333 0.666667 0.374912
