data_none

_audit_creation_method generated by ABACUS

_cell_length_a 2.96053
_cell_length_b 4.87548
_cell_length_c 5.20148
_cell_angle_alpha 90
_cell_angle_beta 90
_cell_angle_gamma 90

_symmetry_space_group_name_H-M 
_symmetry_Int_Tables_number 

loop_
_atom_site_label
_atom_site_fract_x
_atom_site_fract_y
_atom_site_fract_z
Mg 0.5 0.25 0.667102
Mg 0.5 0.75 0.332898
Al 0 0.75 0.842493
Al 0 0.25 0.157507
