data_none

_audit_creation_method generated by ABACUS

_cell_length_a 3.80457
_cell_length_b 3.80457
_cell_length_c 24.2122
_cell_angle_alpha 90
_cell_angle_beta 90
_cell_angle_gamma 90

loop_
_atom_site_label
_atom_site_fract_x
_atom_site_fract_y
_atom_site_fract_z
Si 0 0 0
Si 0.5 0 0.0555556
Si 0.5 0.5 0.111111
Si 0 0.5 0.166667
Si 0 0 0.222222
Si 0.5 0 0.277778
Si 0.5 0.5 0.333333
Si 0 0.5 0.388889
Si 0 0 0.444444
Si 0.5 0 0.5
Si 0.5 0.5 0.555556
