data_none

_audit_creation_method generated by ABACUS

_cell_length_a 2.84522
_cell_length_b 2.84522
_cell_length_c 23.2311
_cell_angle_alpha 90
_cell_angle_beta 90
_cell_angle_gamma 60

loop_
_atom_site_label
_atom_site_fract_x
_atom_site_fract_y
_atom_site_fract_z
Al 0 0 0
Al 0.333333 0.333333 0.1
Al 0.666667 0.666667 0.2
Al 0 0 0.3
Al 0.333333 0.333333 0.4
