data_none

_audit_creation_method generated by ABACUS

_cell_length_a 3.67737
_cell_length_b 3.67737
_cell_length_c 3.67737
_cell_angle_alpha 97.4425
_cell_angle_beta 97.4425
_cell_angle_gamma 137.811

loop_
_symmetry_equiv_pos_as_xyz
'x, +y, +z'
'-y, -y+z, x-y'
'+y-z, x-z, -z'
'-x+z, -x, -x+y'
'+y-z, +y, -x+y'
'-x+z, -y+z, +z'
'x, x-z, x-y'
'-y, -x, -z'
'-x-1/4, -y+1/4, -z-1/2'
'+y-1/4, +y-z+1/4, -x+y-1/2'
'-y+z-1/4, -x+z+1/4, +z-1/2'
'x-z-1/4, x+1/4, x-y-1/2'
'-y+z-1/4, -y+1/4, x-y-1/2'
'x-z-1/4, +y-z+1/4, -z-1/2'
'-x-1/4, -x+z+1/4, -x+y-1/2'
'+y-1/4, x+1/4, +z-1/2'
loop_
_atom_site_label
_atom_site_type_symbol
_atom_site_symmetry_multiplicity
_atom_site_fract_x
_atom_site_fract_y
_atom_site_fract_z
_atom_site_occupancy
Si Si 2 0 0 0 1
