data_test

_audit_creation_method generated by ABACUS

_cell_length_a 2.80729
_cell_length_b 2.80729
_cell_length_c 48.1349
_cell_angle_alpha 90
_cell_angle_beta 90
_cell_angle_gamma 60

_symmetry_space_group_name_H-M 
_symmetry_Int_Tables_number 

loop_
_atom_site_label
_atom_site_fract_x
_atom_site_fract_y
_atom_site_fract_z
Al 0 0 0
Al 0.333333 0.333333 0.0470278
Al 0.666667 0.666667 0.0940106
Al 0 0 0.141243
Al 0.333333 0.333333 0.188771
Al 0.666667 0.666667 0.236481
Al 0 0 0.284128
Al 0.333333 0.333333 0.331663
Al 0.666667 0.666667 0.379743
Al 0 0 0.427786
Al 0.333333 0.333333 0.475853
Al 0.666667 0.666667 0.524147
Al 0 0 0.572214
Al 0.333333 0.333333 0.620257
Al 0.666667 0.666667 0.668337
Al 0 0 0.715872
Al 0.333333 0.333333 0.763519
Al 0.666667 0.666667 0.811229
Al 0 0 0.858757
Al 0.333333 0.333333 0.905989
Al 0.666667 0.666667 0.952972
