data_none

_audit_creation_method generated by ABACUS

_cell_length_a 14.8923
_cell_length_b 14.8923
_cell_length_c 9.08163
_cell_angle_alpha 90
_cell_angle_beta 90
_cell_angle_gamma 120

_symmetry_space_group_name_H-M 
_symmetry_Int_Tables_number 

loop_
_atom_site_label
_atom_site_fract_x
_atom_site_fract_y
_atom_site_fract_z
Li 0 0 0.333038
Li 0.666667 0.333333 0.666371
Li 0.333333 0.666667 0.999705
Mg 0.103302 0.896698 0.493983
Mg 0.114494 0.885506 0.885101
Mg 0 0 0.00416
Mg 0.199935 0.800065 0.115497
Mg 0.371223 0.342997 0.0285897
Mg 0.460063 0.230031 0.827316
Mg 0.32367 0.36156 0.361923
Mg 0.437679 0.21884 0.218435
Mg 0.305107 0.295443 0.695256
Mg 0.199935 0.39987 0.115497
Mg 0.266797 0.133398 0.44883
Mg 0.371223 0.0282267 0.0285897
Mg 0.114494 0.228987 0.885101
Mg 0.305107 0.00966333 0.695256
Mg 0.103302 0.206604 0.493983
Mg 0.32367 0.96211 0.361923
Mg 0.769969 0.230031 0.827316
Mg 0.78116 0.21884 0.218435
Mg 0.666667 0.333333 0.337493
Mg 0.866602 0.133398 0.44883
Mg 0.03789 0.67633 0.361923
Mg 0.126729 0.563365 0.16065
Mg 0.990337 0.694893 0.695256
Mg 0.104346 0.552173 0.551768
Mg 0.971773 0.628777 0.0285897
Mg 0.866602 0.733203 0.44883
Mg 0.933463 0.466732 0.782164
Mg 0.03789 0.36156 0.361923
Mg 0.78116 0.562321 0.218435
Mg 0.971773 0.342997 0.0285897
Mg 0.769969 0.539937 0.827316
Mg 0.990337 0.295443 0.695256
Mg 0.436635 0.563365 0.16065
Mg 0.447827 0.552173 0.551768
Mg 0.333333 0.666667 0.670827
Mg 0.533268 0.466732 0.782164
Mg 0.704557 0.00966333 0.695256
Mg 0.793396 0.896698 0.493983
Mg 0.657003 0.0282267 0.0285897
Mg 0.771013 0.885506 0.885101
Mg 0.63844 0.96211 0.361923
Mg 0.533268 0.0665367 0.782164
Mg 0.60013 0.800065 0.115497
Mg 0.704557 0.694893 0.695256
Mg 0.447827 0.895654 0.551768
Mg 0.63844 0.67633 0.361923
Mg 0.436635 0.873271 0.16065
Mg 0.657003 0.628777 0.0285897
Al 0.271662 0.728338 0.364612
Al 0.210272 0.789728 0.603778
Al 0.334209 0.484214 0.850395
Al 0.483338 0.332458 0.517062
Al 0.271662 0.543325 0.364612
Al 0.483338 0.150881 0.517062
Al 0.210272 0.420545 0.603778
Al 0.246122 0.123061 0.937111
Al 0.182453 0.183328 0.183728
Al 0.123342 0.061671 0.697945
Al 0.334209 0.849995 0.850395
Al 0.182453 0.999124 0.183728
Al 0.938329 0.061671 0.697945
Al 0.876939 0.123061 0.937111
Al 0.000875667 0.817547 0.183728
Al 0.150005 0.665791 0.850395
Al 0.938329 0.876658 0.697945
Al 0.150005 0.484214 0.850395
Al 0.876939 0.753878 0.937111
Al 0.912789 0.456394 0.270444
Al 0.849119 0.516662 0.517062
Al 0.790009 0.395004 0.0312783
Al 0.000875667 0.183328 0.183728
Al 0.849119 0.332458 0.517062
Al 0.604996 0.395004 0.0312783
Al 0.543606 0.456394 0.270444
Al 0.667542 0.150881 0.517062
Al 0.816672 0.999124 0.183728
Al 0.604996 0.209991 0.0312783
Al 0.816672 0.817547 0.183728
Al 0.543606 0.0872113 0.270444
Al 0.579455 0.789728 0.603778
Al 0.515786 0.849995 0.850395
Al 0.456675 0.728338 0.364612
Al 0.667542 0.516662 0.517062
Al 0.515786 0.665791 0.850395
