data_none

_audit_creation_method generated by ABACUS

_cell_length_a 5.44005
_cell_length_b 5.44005
_cell_length_c 8.58534
_cell_angle_alpha 90
_cell_angle_beta 90
_cell_angle_gamma 120

_symmetry_space_group_name_H-M 
_symmetry_Int_Tables_number 

loop_
_atom_site_label
_atom_site_fract_x
_atom_site_fract_y
_atom_site_fract_z
Mg 0.333333 0.666667 0.0634963
Mg 0.666667 0.333333 0.563496
Mg 0.666667 0.333333 0.936504
Mg 0.333333 0.666667 0.436504
Al 0 0 0
Al 0 0 0.5
Al 0.171335 0.34267 0.75
Al 0.828665 0.171335 0.25
Al 0.34267 0.171335 0.25
Al 0.65733 0.828665 0.75
Al 0.171335 0.828665 0.75
Al 0.828665 0.65733 0.25
