data_none

_audit_creation_method generated by ABACUS

_cell_length_a 2.81786
_cell_length_b 3.98506
_cell_length_c 22.5429
_cell_angle_alpha 90
_cell_angle_beta 90
_cell_angle_gamma 90

loop_
_atom_site_label
_atom_site_fract_x
_atom_site_fract_y
_atom_site_fract_z
Al 0 0 0
Al 0.5 0.5 0.0625
Al 0 0 0.125
Al 0.5 0.5 0.1875
Al 0 0 0.25
Al 0.5 0.5 0.3125
Al 0 0 0.375
Al 0.5 0.5 0.4375
Al 0 0 0.5
