data_none

_audit_creation_method generated by ABACUS

_cell_length_a 4.17996
_cell_length_b 4.17996
_cell_length_c 6.92202
_cell_angle_alpha 90
_cell_angle_beta 90
_cell_angle_gamma 120

loop_
_atom_site_label
_atom_site_fract_x
_atom_site_fract_y
_atom_site_fract_z
Si 0.333333 0.666667 0.0631
Si 0.666667 0.333333 0.5631
Si 0.333333 0.666667 0.4369
Si 0.666667 0.333333 0.9369
