data_none

_audit_creation_method generated by ABACUS

_cell_length_a 9.63885
_cell_length_b 9.63885
_cell_length_c 9.63885
_cell_angle_alpha 90
_cell_angle_beta 90
_cell_angle_gamma 90

_symmetry_space_group_name_H-M 
_symmetry_Int_Tables_number 

loop_
_atom_site_label
_atom_site_fract_x
_atom_site_fract_y
_atom_site_fract_z
Li 0.396553 0.896553 0.896553
Li 0.103447 0.103447 0.396553
Li 0.103447 0.896553 0.603447
Li 0.146553 0.146553 0.853447
Li 0.353447 0.353447 0.853447
Li 0.396553 0.103447 0.103447
Li 0.146553 0.353447 0.646553
Li 0.353447 0.146553 0.646553
Li 0.396553 0.396553 0.396553
Li 0.103447 0.603447 0.896553
Li 0.103447 0.396553 0.103447
Li 0.146553 0.646553 0.353447
Li 0.353447 0.853447 0.353447
Li 0.396553 0.603447 0.603447
Li 0.146553 0.853447 0.146553
Li 0.353447 0.646553 0.146553
Li 0.896553 0.896553 0.396553
Li 0.603447 0.103447 0.896553
Li 0.603447 0.896553 0.103447
Li 0.646553 0.146553 0.353447
Li 0.853447 0.353447 0.353447
Li 0.896553 0.103447 0.603447
Li 0.646553 0.353447 0.146553
Li 0.853447 0.146553 0.146553
Li 0.896553 0.396553 0.896553
Li 0.603447 0.603447 0.396553
Li 0.603447 0.396553 0.603447
Li 0.646553 0.646553 0.853447
Li 0.853447 0.853447 0.853447
Li 0.896553 0.603447 0.103447
Li 0.646553 0.853447 0.646553
Li 0.853447 0.646553 0.646553
Al 0.125 0.625 0.625
Al 0.375 0.875 0.625
Al 0.375 0.625 0.875
Al 0.125 0.875 0.875
Al 0.125 0.125 0.125
Al 0.375 0.375 0.125
Al 0.375 0.125 0.375
Al 0.125 0.375 0.375
Al 0.625 0.625 0.125
Al 0.875 0.875 0.125
Al 0.875 0.625 0.375
Al 0.625 0.875 0.375
Al 0.625 0.125 0.625
Al 0.875 0.375 0.625
Al 0.875 0.125 0.875
Al 0.625 0.375 0.875
