data_none

_audit_creation_method generated by ABACUS

_cell_length_a 2.72857
_cell_length_b 2.72857
_cell_length_c 2.72857
_cell_angle_alpha 60
_cell_angle_beta 60
_cell_angle_gamma 60

loop_
_symmetry_equiv_pos_as_xyz
'x, +y, +z'
'-x, -y, -z'
'+y, -x-y-z, +z'
'-y, x+y+z, -z'
'-x-y-z, x, +z'
'x+y+z, -x, -z'
'x+y+z, -z, -x'
'-x-y-z, +z, x'
'-x, -z, -y'
'x, +z, +y'
'-y, -z, x+y+z'
'+y, +z, -x-y-z'
'+y, x, -x-y-z'
'-y, -x, x+y+z'
'-x-y-z, +y, x'
'x+y+z, -y, -x'
'x, -x-y-z, +y'
'-x, x+y+z, -y'
'-z, x+y+z, -y'
'+z, -x-y-z, +y'
'-z, -x, x+y+z'
'+z, x, -x-y-z'
'-z, -y, -x'
'+z, +y, x'
'x, +z, -x-y-z'
'-x, -z, x+y+z'
'+y, +z, x'
'-y, -z, -x'
'-x-y-z, +z, +y'
'x+y+z, -z, -y'
'x+y+z, -x, -y'
'-x-y-z, x, +y'
'-x, -y, x+y+z'
'x, +y, -x-y-z'
'-y, x+y+z, -x'
'+y, -x-y-z, x'
'+z, +y, -x-y-z'
'-z, -y, x+y+z'
'+z, -x-y-z, x'
'-z, x+y+z, -x'
'+z, x, +y'
'-z, -x, -y'
'x+y+z, -y, -z'
'-x-y-z, +y, +z'
'-y, -x, -z'
'+y, x, +z'
'-x, x+y+z, -z'
'x, -x-y-z, +z'
loop_
_atom_site_label
_atom_site_type_symbol
_atom_site_symmetry_multiplicity
_atom_site_fract_x
_atom_site_fract_y
_atom_site_fract_z
_atom_site_occupancy
Si Si 1 0 0 0 1
