data_none

_audit_creation_method generated by ABACUS

_cell_length_a 9.59081
_cell_length_b 9.59081
_cell_length_c 9.59081
_cell_angle_alpha 90
_cell_angle_beta 90
_cell_angle_gamma 90

_symmetry_space_group_name_H-M 
_symmetry_Int_Tables_number 

loop_
_atom_site_label
_atom_site_fract_x
_atom_site_fract_y
_atom_site_fract_z
Li 0.125 0.625 0.625
Li 0.375 0.875 0.625
Li 0.375 0.625 0.875
Li 0.125 0.875 0.875
Li 0.125 0.125 0.125
Li 0.375 0.375 0.125
Li 0.375 0.125 0.375
Li 0.125 0.375 0.375
Li 0.625 0.625 0.125
Li 0.875 0.875 0.125
Li 0.875 0.625 0.375
Li 0.625 0.875 0.375
Li 0.625 0.125 0.625
Li 0.875 0.375 0.625
Li 0.875 0.125 0.875
Li 0.625 0.375 0.875
Al 0.398473 0.898473 0.898473
Al 0.101527 0.101527 0.398473
Al 0.101527 0.898473 0.601527
Al 0.148473 0.148473 0.851527
Al 0.351527 0.351527 0.851527
Al 0.398473 0.101527 0.101527
Al 0.148473 0.351527 0.648473
Al 0.351527 0.148473 0.648473
Al 0.398473 0.398473 0.398473
Al 0.101527 0.601527 0.898473
Al 0.101527 0.398473 0.101527
Al 0.148473 0.648473 0.351527
Al 0.351527 0.851527 0.351527
Al 0.398473 0.601527 0.601527
Al 0.148473 0.851527 0.148473
Al 0.351527 0.648473 0.148473
Al 0.898473 0.898473 0.398473
Al 0.601527 0.101527 0.898473
Al 0.601527 0.898473 0.101527
Al 0.648473 0.148473 0.351527
Al 0.851527 0.351527 0.351527
Al 0.898473 0.101527 0.601527
Al 0.648473 0.351527 0.148473
Al 0.851527 0.148473 0.148473
Al 0.898473 0.398473 0.898473
Al 0.601527 0.601527 0.398473
Al 0.601527 0.398473 0.601527
Al 0.648473 0.648473 0.851527
Al 0.851527 0.851527 0.851527
Al 0.898473 0.601527 0.101527
Al 0.648473 0.851527 0.648473
Al 0.851527 0.648473 0.648473
