data_none

_audit_creation_method generated by ABACUS

_cell_length_a 6.48191
_cell_length_b 6.48191
_cell_length_c 6.48191
_cell_angle_alpha 90
_cell_angle_beta 90
_cell_angle_gamma 90

loop_
_atom_site_label
_atom_site_fract_x
_atom_site_fract_y
_atom_site_fract_z
Si 0.148443 0.851557 0.351557
Si 0.851557 0.648443 0.351557
Si 0.351557 0.851557 0.648443
Si 0.648443 0.648443 0.648443
Si 0.851557 0.148443 0.648443
Si 0.648443 0.851557 0.148443
Si 0.648443 0.148443 0.351557
Si 0.351557 0.351557 0.351557
Si 0.648443 0.351557 0.851557
Si 0.351557 0.148443 0.851557
Si 0.851557 0.351557 0.148443
Si 0.148443 0.148443 0.148443
Si 0.351557 0.648443 0.148443
Si 0.148443 0.351557 0.648443
Si 0.148443 0.648443 0.851557
Si 0.851557 0.851557 0.851557
