data_none

_audit_creation_method generated by ABACUS

_cell_length_a 10.8788
_cell_length_b 3.37539
_cell_length_c 4.89945
_cell_angle_alpha 90
_cell_angle_beta 116.589
_cell_angle_gamma 90

_symmetry_space_group_name_H-M 
_symmetry_Int_Tables_number 

loop_
_atom_site_label
_atom_site_fract_x
_atom_site_fract_y
_atom_site_fract_z
Li 0.133299 0.5 0.383541
Li 0.366701 0 0.616459
Li 0.633299 0 0.383541
Li 0.866701 0.5 0.616459
Mg 0.384604 0.5 0.135455
Mg 0.115396 0 0.864545
Mg 0.884604 0 0.135455
Mg 0.615396 0.5 0.864545
