data_test

_audit_creation_method generated by ABACUS

_cell_length_a 2.8058
_cell_length_b 2.8058
_cell_length_c 45.8185
_cell_angle_alpha 90
_cell_angle_beta 90
_cell_angle_gamma 60

_symmetry_space_group_name_H-M 
_symmetry_Int_Tables_number 

loop_
_atom_site_label
_atom_site_fract_x
_atom_site_fract_y
_atom_site_fract_z
Al 0 0 0.000133597
Al 0.333333 0.333333 0.0497587
Al 0.666667 0.666667 0.0997942
Al 0 0 0.149626
Al 0.333333 0.333333 0.199557
Al 0.766667 0.766667 0.250496
Al 0.1 0.1 0.300341
Al 0.433333 0.433333 0.350322
Al 0.766667 0.766667 0.399931
Al 0.1 0.1 0.45
Al 0.766667 0.766667 0.500069
Al 0.433333 0.433333 0.549678
Al 0.1 0.1 0.599659
Al 0.766667 0.766667 0.649504
Al 0.333333 0.333333 0.700443
Al 0 0 0.750374
Al 0.666667 0.666667 0.800206
Al 0.333333 0.333333 0.850241
Al 0 0 0.899866
Al 0.666667 0.666667 0.95
