data_none

_audit_creation_method generated by ABACUS

_cell_length_a 4.23411
_cell_length_b 4.23411
_cell_length_c 6.9903
_cell_angle_alpha 90
_cell_angle_beta 90
_cell_angle_gamma 120

loop_
_atom_site_label
_atom_site_fract_x
_atom_site_fract_y
_atom_site_fract_z
Ga 0.666667 0.333333 0.500683
Ga 0.333333 0.666667 0.00068308
Sb 0.666667 0.333333 0.874217
Sb 0.333333 0.666667 0.374217
