data_none

_audit_creation_method generated by ABACUS

_cell_length_a 2.89671
_cell_length_b 5.21891
_cell_length_c 11.8047
_cell_angle_alpha 90
_cell_angle_beta 90
_cell_angle_gamma 90

_symmetry_space_group_name_H-M 
_symmetry_Int_Tables_number 

loop_
_atom_site_label
_atom_site_fract_x
_atom_site_fract_y
_atom_site_fract_z
Li 0 0 0
Li 0.5 0.5 0.5
Mg 0 0 0.747914
Mg 0.5 0.5 0.752086
Mg 0.5 0.5 0.247914
Mg 0 0 0.252086
Al 0.5 0.5 0
Al 0 0 0.5
