data_none

_audit_creation_method generated by ABACUS

_cell_length_a 4.01287
_cell_length_b 4.01287
_cell_length_c 6.60164
_cell_angle_alpha 90
_cell_angle_beta 90
_cell_angle_gamma 120

loop_
_atom_site_label
_atom_site_fract_x
_atom_site_fract_y
_atom_site_fract_z
Al 0.666667 0.333333 0.500378
Al 0.333333 0.666667 0.00037827
Sb 0.666667 0.333333 0.874722
Sb 0.333333 0.666667 0.374722
