data_test

_audit_creation_method generated by ABACUS

_cell_length_a 2.80729
_cell_length_b 2.80729
_cell_length_c 50.4271
_cell_angle_alpha 90
_cell_angle_beta 90
_cell_angle_gamma 60

_symmetry_space_group_name_H-M 
_symmetry_Int_Tables_number 

loop_
_atom_site_label
_atom_site_fract_x
_atom_site_fract_y
_atom_site_fract_z
Al 0 0 0.000106226
Al 0.333333 0.333333 0.0452938
Al 0.666667 0.666667 0.0907925
Al 0 0 0.135998
Al 0.333333 0.333333 0.181562
Al 0 0 0.22695
Al 0.566667 0.566667 0.27318
Al 0.9 0.9 0.318576
Al 0.233333 0.233333 0.363851
Al 0.566667 0.566667 0.409045
Al 0.9 0.9 0.454545
Al 0.566667 0.566667 0.500046
Al 0.233333 0.233333 0.54524
Al 0.9 0.9 0.590515
Al 0.566667 0.566667 0.635911
Al 0 0 0.682141
Al 0.333333 0.333333 0.727529
Al 0 0 0.773093
Al 0.666667 0.666667 0.818298
Al 0.333333 0.333333 0.863797
Al 0 0 0.908985
Al 0.666667 0.666667 0.954545
