data_test

_audit_creation_method generated by ABACUS

_cell_length_a 2.80729
_cell_length_b 2.80729
_cell_length_c 48.1402
_cell_angle_alpha 90
_cell_angle_beta 90
_cell_angle_gamma 60

_symmetry_space_group_name_H-M 
_symmetry_Int_Tables_number 

loop_
_atom_site_label
_atom_site_fract_x
_atom_site_fract_y
_atom_site_fract_z
Al 0 0 0
Al 0.333333 0.333333 0.0471609
Al 0.666667 0.666667 0.0942687
Al 1.03492e-16 1.03492e-16 0.141474
Al 0.333333 0.333333 0.188852
Al 0.666667 0.666667 0.236445
Al 1.18603e-16 1.18603e-16 0.284129
Al 0.333333 0.333333 0.331846
Al 0.666667 0.666667 0.37974
Al 5.0383e-17 5.0383e-17 0.427898
Al 0.333333 0.333333 0.476023
Al 0.666667 0.666667 0.523977
Al 0 0 0.572102
Al 0.333333 0.333333 0.62026
Al 0.666667 0.666667 0.668154
Al 1 1 0.715871
Al 0.333333 0.333333 0.763555
Al 0.666667 0.666667 0.811148
Al 1 1 0.858526
Al 0.333333 0.333333 0.905731
Al 0.666667 0.666667 0.952839
