data_test

_audit_creation_method generated by ABACUS

_cell_length_a 3.82428
_cell_length_b 3.82428
_cell_length_c 21.6334
_cell_angle_alpha 90
_cell_angle_beta 90
_cell_angle_gamma 90

_symmetry_space_group_name_H-M 
_symmetry_Int_Tables_number 

loop_
_atom_site_label
_atom_site_fract_x
_atom_site_fract_y
_atom_site_fract_z
Si 0 0 0
Si 0.5 0 0.0625
Si 0.5 0.5 0.125
Si 0 0.5 0.1875
Si 0 0 0.25
Si 0.5 0 0.3125
Si 0.5 0.5 0.375
Si 0 0.5 0.4375
Si 0 0 0.5
