data_none

_audit_creation_method generated by ABACUS

_cell_length_a 10.4365
_cell_length_b 10.4365
_cell_length_c 10.4365
_cell_angle_alpha 90
_cell_angle_beta 90
_cell_angle_gamma 90

_symmetry_space_group_name_H-M 
_symmetry_Int_Tables_number 

loop_
_atom_site_label
_atom_site_fract_x
_atom_site_fract_y
_atom_site_fract_z
Mg 0 0 0
Mg 0.672987 0.327013 0.327013
Mg 0.327013 0.672987 0.327013
Mg 0.327013 0.327013 0.672987
Mg 0.172987 0.172987 0.172987
Mg 0.143155 0.856845 0.540748
Mg 0.959252 0.356845 0.356845
Mg 0.143155 0.540748 0.856845
Mg 0.856845 0.143155 0.540748
Mg 0.540748 0.143155 0.856845
Mg 0.356845 0.959252 0.356845
Mg 0.356845 0.356845 0.959252
Mg 0.540748 0.856845 0.143155
Mg 0.856845 0.540748 0.143155
Mg 0.143155 0.143155 0.459252
Mg 0.459252 0.143155 0.143155
Mg 0.143155 0.459252 0.143155
Mg 0.5 0.5 0.5
Mg 0.172987 0.827013 0.827013
Mg 0.827013 0.172987 0.827013
Mg 0.827013 0.827013 0.172987
Mg 0.672987 0.672987 0.672987
Mg 0.643155 0.356845 0.040748
Mg 0.459252 0.856845 0.856845
Mg 0.643155 0.040748 0.356845
Mg 0.356845 0.643155 0.040748
Mg 0.040748 0.643155 0.356845
Mg 0.856845 0.459252 0.856845
Mg 0.856845 0.856845 0.459252
Mg 0.040748 0.356845 0.643155
Mg 0.356845 0.040748 0.643155
Mg 0.643155 0.643155 0.959252
Mg 0.959252 0.643155 0.643155
Mg 0.643155 0.959252 0.643155
Al 0.909485 0.0905146 0.276232
Al 0.723768 0.0905146 0.0905146
Al 0.909485 0.276232 0.0905146
Al 0.0905146 0.909485 0.276232
Al 0.276232 0.909485 0.0905146
Al 0.0905146 0.723768 0.0905146
Al 0.0905146 0.0905146 0.723768
Al 0.276232 0.0905146 0.909485
Al 0.0905146 0.276232 0.909485
Al 0.409485 0.409485 0.223768
Al 0.223768 0.409485 0.409485
Al 0.409485 0.223768 0.409485
Al 0.409485 0.590515 0.776232
Al 0.223768 0.590515 0.590515
Al 0.409485 0.776232 0.590515
Al 0.590515 0.409485 0.776232
Al 0.776232 0.409485 0.590515
Al 0.590515 0.223768 0.590515
Al 0.590515 0.590515 0.223768
Al 0.776232 0.590515 0.409485
Al 0.590515 0.776232 0.409485
Al 0.909485 0.909485 0.723768
Al 0.723768 0.909485 0.909485
Al 0.909485 0.723768 0.909485
