data_none

_audit_creation_method generated by ABACUS

_cell_length_a 6.62091
_cell_length_b 6.62091
_cell_length_c 6.62091
_cell_angle_alpha 90
_cell_angle_beta 90
_cell_angle_gamma 90

loop_
_symmetry_equiv_pos_as_xyz
'x, +y, +z'
'-x, -y, -z'
'+z, x, +y'
'-z, -x, -y'
'+y, +z, x'
'-y, -z, -x'
'-z, -x-1/2, +y'
'+z, x-1/2, -y'
'-y, +z-1/2, -x-1/2'
'+y, -z-1/2, x-1/2'
'-x, -y-1/2, +z'
'x, +y-1/2, -z'
'+y, -z, -x-1/2'
'-y, +z, x-1/2'
'-z, x-1/2, -y-1/2'
'+z, -x-1/2, +y-1/2'
'-y, -z-1/2, x'
'+y, +z-1/2, -x'
'x, -y, -z-1/2'
'-x, +y, +z-1/2'
'-x, +y-1/2, -z-1/2'
'x, -y-1/2, +z-1/2'
'+z, -x, -y-1/2'
'-z, x, +y-1/2'
loop_
_atom_site_label
_atom_site_type_symbol
_atom_site_symmetry_multiplicity
_atom_site_fract_x
_atom_site_fract_y
_atom_site_fract_z
_atom_site_occupancy
Si Si 16 0.148443 0.851557 0.351557 1
