data_none

_audit_creation_method generated by ABACUS

_cell_length_a 4.44827
_cell_length_b 5.36281
_cell_length_c 9.5879
_cell_angle_alpha 105.135
_cell_angle_beta 103.199
_cell_angle_gamma 90.0682

_symmetry_space_group_name_H-M 
_symmetry_Int_Tables_number 

loop_
_atom_site_label
_atom_site_fract_x
_atom_site_fract_y
_atom_site_fract_z
Li 0.231328 0.841432 0.465034
Li 0.308437 0.474829 0.615581
Li 0.691563 0.525171 0.384419
Li 0.543168 0.324781 0.087601
Li 0.768672 0.158568 0.534966
Li 0.456832 0.675219 0.912399
Li 0 0 0
Li 0.914357 0.359081 0.830041
Li 0.0856429 0.640919 0.169959
Al 0.614394 0.935101 0.229001
Al 0.385606 0.0648991 0.770999
Al 0.14993 0.214629 0.301033
Al 0.85007 0.785371 0.698967
