data_none

_audit_creation_method generated by ABACUS

_cell_length_a 10.8167
_cell_length_b 10.8167
_cell_length_c 10.8167
_cell_angle_alpha 90
_cell_angle_beta 90
_cell_angle_gamma 90

_symmetry_space_group_name_H-M 
_symmetry_Int_Tables_number 

loop_
_atom_site_label
_atom_site_fract_x
_atom_site_fract_y
_atom_site_fract_z
Si 0.25 0.25 0
Si 0.25 0 0.25
Si 0 0.25 0.25
Si 0.125 0.125 0.125
Si 0.375 0.375 0.125
Si 0.375 0.125 0.375
Si 0.125 0.375 0.375
Si 0 0 0.5
Si 0.25 0.25 0.5
Si 0.25 0 0.75
Si 0 0.25 0.75
Si 0.125 0.125 0.625
Si 0.375 0.375 0.625
Si 0.375 0.125 0.875
Si 0.125 0.375 0.875
Si 0 0.5 0
Si 0.25 0.75 0
Si 0.25 0.5 0.25
Si 0 0.75 0.25
Si 0.125 0.625 0.125
Si 0.375 0.875 0.125
Si 0.375 0.625 0.375
Si 0.125 0.875 0.375
Si 0 0.5 0.5
Si 0.25 0.75 0.5
Si 0.25 0.5 0.75
Si 0 0.75 0.75
Si 0.125 0.625 0.625
Si 0.375 0.875 0.625
Si 0.375 0.625 0.875
Si 0.125 0.875 0.875
Si 0.5 0 0
Si 0.75 0.25 0
Si 0.75 0 0.25
Si 0.5 0.25 0.25
Si 0.625 0.125 0.125
Si 0.875 0.375 0.125
Si 0.875 0.125 0.375
Si 0.625 0.375 0.375
Si 0.5 0 0.5
Si 0.75 0.25 0.5
Si 0.75 0 0.75
Si 0.5 0.25 0.75
Si 0.625 0.125 0.625
Si 0.875 0.375 0.625
Si 0.875 0.125 0.875
Si 0.625 0.375 0.875
Si 0.5 0.5 0
Si 0.75 0.75 0
Si 0.75 0.5 0.25
Si 0.5 0.75 0.25
Si 0.625 0.625 0.125
Si 0.875 0.875 0.125
Si 0.875 0.625 0.375
Si 0.625 0.875 0.375
Si 0.5 0.5 0.5
Si 0.75 0.75 0.5
Si 0.75 0.5 0.75
Si 0.5 0.75 0.75
Si 0.625 0.625 0.625
Si 0.875 0.875 0.625
Si 0.875 0.625 0.875
Si 0.625 0.875 0.875
