data_none

_audit_creation_method generated by ABACUS

_cell_length_a 6.27124
_cell_length_b 6.27124
_cell_length_c 5.05219
_cell_angle_alpha 90
_cell_angle_beta 90
_cell_angle_gamma 120

_symmetry_space_group_name_H-M 
_symmetry_Int_Tables_number 

loop_
_atom_site_label
_atom_site_fract_x
_atom_site_fract_y
_atom_site_fract_z
Mg 0.999607 0.499804 0
Mg 0.500196 0.00039254 0
Mg 0.500196 0.499804 0
Mg 0.164929 0.835071 0.5
Mg 0.164929 0.329859 0.5
Mg 0.670141 0.835071 0.5
Mg 0.666667 0.333333 0.5
Al 0 0 0
