data_test

_audit_creation_method generated by ABACUS

_cell_length_a 2.8058
_cell_length_b 2.8058
_cell_length_c 50.4003
_cell_angle_alpha 90
_cell_angle_beta 90
_cell_angle_gamma 60

_symmetry_space_group_name_H-M 
_symmetry_Int_Tables_number 

loop_
_atom_site_label
_atom_site_fract_x
_atom_site_fract_y
_atom_site_fract_z
Al 0 0 0.000162595
Al 0.333333 0.333333 0.0453283
Al 0.666667 0.666667 0.090823
Al 0 0 0.136003
Al 0.333333 0.333333 0.181566
Al 0 0 0.226971
Al 0.566667 0.566667 0.273147
Al 0.9 0.9 0.318581
Al 0.233333 0.233333 0.36386
Al 0.566667 0.566667 0.409006
Al 0.9 0.9 0.454545
Al 0.566667 0.566667 0.500085
Al 0.233333 0.233333 0.545231
Al 0.9 0.9 0.59051
Al 0.566667 0.566667 0.635944
Al 0 0 0.68212
Al 0.333333 0.333333 0.727525
Al 0 0 0.773088
Al 0.666667 0.666667 0.818268
Al 0.333333 0.333333 0.863763
Al 0 0 0.908928
Al 0.666667 0.666667 0.954545
