data_none

_audit_creation_method generated by ABACUS

_cell_length_a 2.76808
_cell_length_b 2.76808
_cell_length_c 4.40874
_cell_angle_alpha 90
_cell_angle_beta 90
_cell_angle_gamma 120

loop_
_symmetry_equiv_pos_as_xyz
'x, +y, +z'
'-y, x-y, -z'
'-x+y, -x, +z'
'x, +y, -z'
'-y, x-y, +z'
'-x+y, -x, -z'
'-x+y, +y, +z'
'x, x-y, -z'
'-y, -x, +z'
'-x+y, +y, -z'
'x, x-y, +z'
'-y, -x, -z'
'-x-3333333/10000000, -y-6666667/10000000, -z-1/2'
'+y-3333333/10000000, -x+y-6666667/10000000, +z-1/2'
'x-y-3333333/10000000, x-6666667/10000000, -z-1/2'
'-x-3333333/10000000, -y-6666667/10000000, +z-1/2'
'+y-3333333/10000000, -x+y-6666667/10000000, -z-1/2'
'x-y-3333333/10000000, x-6666667/10000000, +z-1/2'
'x-y-3333333/10000000, -y-6666667/10000000, -z-1/2'
'-x-3333333/10000000, -x+y-6666667/10000000, +z-1/2'
'+y-3333333/10000000, x-6666667/10000000, -z-1/2'
'x-y-3333333/10000000, -y-6666667/10000000, +z-1/2'
'-x-3333333/10000000, -x+y-6666667/10000000, -z-1/2'
'+y-3333333/10000000, x-6666667/10000000, +z-1/2'
loop_
_atom_site_label
_atom_site_type_symbol
_atom_site_symmetry_multiplicity
_atom_site_fract_x
_atom_site_fract_y
_atom_site_fract_z
_atom_site_occupancy
Si Si 2 0 0 0 1
