data_none

_audit_creation_method generated by ABACUS

_cell_length_a 6.29875
_cell_length_b 6.29875
_cell_length_c 10.366
_cell_angle_alpha 90
_cell_angle_beta 90
_cell_angle_gamma 120

_symmetry_space_group_name_H-M 
_symmetry_Int_Tables_number 

loop_
_atom_site_label
_atom_site_fract_x
_atom_site_fract_y
_atom_site_fract_z
Li 0 0 0.5
Mg 0.999309 0.499654 0
Mg 0.00088567 0.500443 0.5
Mg 0.500346 0.00069143 0
Mg 0.499557 0.999114 0.5
Mg 0.500346 0.499654 0
Mg 0.499557 0.500443 0.5
Mg 0.165386 0.834614 0.249174
Mg 0.165386 0.834614 0.750826
Mg 0.165386 0.330773 0.249174
Mg 0.165386 0.330773 0.750826
Mg 0.669227 0.834614 0.249174
Mg 0.669227 0.834614 0.750826
Mg 0.666667 0.333333 0.250611
Mg 0.666667 0.333333 0.749389
Al 0 0 0
