data_none

_audit_creation_method generated by ABACUS

_cell_length_a 4.34845
_cell_length_b 4.34845
_cell_length_c 7.15034
_cell_angle_alpha 90
_cell_angle_beta 90
_cell_angle_gamma 120

loop_
_symmetry_equiv_pos_as_xyz
'x, +y, +z'
'-x+y, -x, +z'
'-y, x-y, +z'
'-x+y, +y, +z'
'-y, -x, +z'
'x, x-y, +z'
'+y0, -x+y0, +z-1/2'
'-x0, -y0, +z-1/2'
'x-y0, x0, +z-1/2'
'-x0, -x+y0, +z-1/2'
'x-y0, -y0, +z-1/2'
'+y0, x0, +z-1/2'
loop_
_atom_site_label
_atom_site_type_symbol
_atom_site_symmetry_multiplicity
_atom_site_fract_x
_atom_site_fract_y
_atom_site_fract_z
_atom_site_occupancy
In In 2 0.666667 0.333333 0.500463 1
