data_none

_audit_creation_method generated by ABACUS

_cell_length_a 3.83466
_cell_length_b 3.83466
_cell_length_c 6.29279
_cell_angle_alpha 90
_cell_angle_beta 90
_cell_angle_gamma 120

loop_
_atom_site_label
_atom_site_fract_x
_atom_site_fract_y
_atom_site_fract_z
In 0.666667 0.333333 0.500196
In 0.333333 0.666667 0.00019625
P 0.666667 0.333333 0.874805
P 0.333333 0.666667 0.374805
