data_test

_audit_creation_method generated by ABACUS

_cell_length_a 2.8058
_cell_length_b 2.8058
_cell_length_c 48.1094
_cell_angle_alpha 90
_cell_angle_beta 90
_cell_angle_gamma 60

_symmetry_space_group_name_H-M 
_symmetry_Int_Tables_number 

loop_
_atom_site_label
_atom_site_fract_x
_atom_site_fract_y
_atom_site_fract_z
Al 0 0 0
Al 0.333333 0.333333 0.047619
Al 0.666667 0.666667 0.0952381
Al 0 0 0.142857
Al 0.333333 0.333333 0.190476
Al 0.666667 0.666667 0.238095
Al 0 0 0.285714
Al 0.333333 0.333333 0.333333
Al 0.666667 0.666667 0.380952
Al 0 0 0.428571
Al 0.333333 0.333333 0.47619
Al 0.666667 0.666667 0.52381
Al 0 0 0.571429
Al 0.333333 0.333333 0.619048
Al 0.666667 0.666667 0.666667
Al 0 0 0.714286
Al 0.333333 0.333333 0.761905
Al 0.666667 0.666667 0.809524
Al 0 0 0.857143
Al 0.333333 0.333333 0.904762
Al 0.666667 0.666667 0.952381
